Version 4
SHEET 1 1292 680
WIRE -656 -400 -720 -400
WIRE -560 -400 -592 -400
WIRE -720 -304 -720 -400
WIRE -720 -160 -720 -224
WIRE -624 -160 -720 -160
WIRE -720 -128 -720 -160
WIRE -928 -48 -944 -48
WIRE -768 -48 -928 -48
WIRE -944 0 -944 -48
WIRE -480 0 -480 -32
WIRE -944 128 -944 80
WIRE -720 128 -720 -32
WIRE -480 128 -480 80
FLAG -480 128 0
FLAG -944 128 0
FLAG -720 128 0
FLAG -480 -32 VDD
FLAG -560 -400 VDD
FLAG -624 -160 VDS
FLAG -928 -48 VGS
SYMBOL voltage -480 -16 R0
WINDOW 123 0 0 Left 2
WINDOW 39 37 60 Left 2
WINDOW 0 36 55 Left 2
WINDOW 3 36 82 Left 2
SYMATTR InstName V1
SYMATTR Value 12
SYMBOL voltage -944 -16 R0
WINDOW 123 0 0 Left 2
WINDOW 39 40 53 Left 2
WINDOW 3 35 72 Left 2
WINDOW 0 35 44 Left 2
SYMATTR Value PWL(0 0 1 0 1.1 5 2 5 2.1 0)
SYMATTR InstName V2
SYMBOL nmos -768 -128 R0
SYMATTR InstName M1
SYMATTR Value IRF1010E
SYMBOL Misc\\EuropeanResistor -736 -320 R0
SYMATTR InstName R1
SYMATTR Value 181
SYMBOL LED -592 -416 R90
WINDOW 0 0 32 VBottom 2
WINDOW 3 32 32 VTop 2
SYMATTR InstName D1
SYMATTR Value QTLP690C
SYMATTR Description Diode
SYMATTR Type diode
TEXT -680 168 Left 2 !.lib mosfet.lib
TEXT -960 168 Left 2 !.tran 3
