.MODEL PMOSDEP PMOS
+ LEVEL=3
+ L=2.0000E-6
+ W=5.5000
+ KP=1.0446E-6
+ RS=1.0000E-3
+ RD=.22202
+ VTO=1
+ RDS=20.000E6
+ TOX=2.0000E-6
+ CGSO=3.5684E-9
+ CGDO=37.622E-12
+ CBD=4.8729E-9
+ MJ=1.5000
+ PB=2.6055
+ RG=10.000E-3
+ IS=1.3714E-6
+ N=2.0283
+ RB=1.0000E-9
+ GAMMA=0
+ KAPPA=0

.MODEL PMOSENH PMOS
+ LEVEL=3
+ L=2.0000E-6
+ W=5.5000
+ KP=1.0446E-6
+ RS=1.0000E-3
+ RD=.22202
+ VTO=-1
+ RDS=20.000E6
+ TOX=2.0000E-6
+ CGSO=3.5684E-9
+ CGDO=37.622E-12
+ CBD=4.8729E-9
+ MJ=1.5000
+ PB=2.6055
+ RG=10.000E-3
+ IS=1.3714E-6
+ N=2.0283
+ RB=1.0000E-9
+ GAMMA=0
+ KAPPA=0

.MODEL NMOSDEP NMOS
+ LEVEL=3
+ L=2.0000E-6
+ W=5.5000
+ KP=1.0446E-6
+ RS=1.0000E-3
+ RD=.22202
+ VTO=-1
+ RDS=20.000E6
+ TOX=2.0000E-6
+ CGSO=3.5684E-9
+ CGDO=37.622E-12
+ CBD=4.8729E-9
+ MJ=1.5000
+ PB=2.6055
+ RG=10.000E-3
+ IS=1.3714E-6
+ N=2.0283
+ RB=1.0000E-9
+ GAMMA=0
+ KAPPA=0

.MODEL NMOSENH NMOS
+ LEVEL=3
+ L=2.0000E-6
+ W=5.5000
+ KP=1.0446E-6
+ RS=1.0000E-3
+ RD=.22202
+ VTO=1
+ RDS=20.000E6
+ TOX=2.0000E-6
+ CGSO=3.5684E-9
+ CGDO=37.622E-12
+ CBD=4.8729E-9
+ MJ=1.5000
+ PB=2.6055
+ RG=10.000E-3
+ IS=1.3714E-6
+ N=2.0283
+ RB=1.0000E-9
+ GAMMA=0
+ KAPPA=0

.MODEL MOD53 NMOS
+ LEVEL=3
+ L=2.0000E-6
+ W=5.5000
+ KP=1.0446E-6
+ RS=1.0000E-3
+ RD=.22202
+ VTO=-1
+ RDS=20.000E6
+ TOX=2.0000E-6
+ CGSO=3.5684E-9
+ CGDO=37.622E-12
+ CBD=4.8729E-9
+ MJ=1.5000
+ PB=2.6055
+ RG=10.000E-3
+ IS=1.3714E-6
+ N=2.0283
+ RB=1.0000E-9
+ GAMMA=0
+ KAPPA=0