**************************************
*      Model Generated by MODPEX     *
*Copyright(c) Symmetry Design Systems*
*         All Rights Reserved        *
*    UNPUBLISHED LICENSED SOFTWARE   *
*   Contains Proprietary Information *
*      Which is The Property of      *
*     SYMMETRY OR ITS LICENSORS      *
*    Modeling services provided by   *
* Interface Technologies www.i-t.com *
**************************************
.MODEL D1n4934rl d
+IS=2.86853e-08 RS=0.0819148 N=2 EG=1.3
+XTI=4 BV=100 IBV=1e-06 CJO=2.63241e-11
+VJ=0.4 M=0.337959 FC=0.5 TT=1.94764e-07
+KF=0 AF=1
* Model generated on October 12, 2003
* Model format: PSpice
