Version 4
SHEET 1 880 680
WIRE 16 176 -112 176
WIRE 208 176 80 176
WIRE -112 240 -112 176
WIRE 208 240 208 176
WIRE -112 368 -112 320
WIRE 48 368 -112 368
WIRE 208 368 208 320
WIRE 208 368 48 368
WIRE 48 384 48 368
FLAG -112 176 a
FLAG 208 176 b
FLAG 48 384 0
SYMBOL diode 80 160 R90
WINDOW 0 0 32 VBottom 2
WINDOW 3 32 32 VTop 2
SYMATTR InstName D1
SYMATTR Value RF601T2D
SYMBOL Misc\\EuropeanResistor 192 224 R0
SYMATTR InstName R1
SYMATTR Value 1k
SYMBOL Misc\\battery -112 224 R0
WINDOW 123 0 0 Left 2
WINDOW 39 0 0 Left 2
SYMATTR InstName V1
SYMATTR Value ""
TEXT -120 424 Left 2 !.dc V1 0 20V
TEXT -120 456 Left 2 !.step param temp list -10 25 40
