Version 4
SHEET 1 880 680
WIRE 16 160 -144 160
WIRE 224 160 80 160
WIRE 224 208 224 160
WIRE -144 224 -144 160
WIRE -144 352 -144 304
WIRE 48 352 -144 352
WIRE 224 352 224 288
WIRE 224 352 48 352
WIRE 48 368 48 352
FLAG -144 160 a
FLAG 224 160 b
FLAG 48 368 0
SYMBOL diode 80 144 R90
WINDOW 0 0 32 VBottom 2
WINDOW 3 49 21 VTop 2
SYMATTR InstName D1
SYMATTR Value RF601T2D
SYMBOL Misc\\EuropeanResistor 208 192 R0
SYMATTR InstName R1
SYMATTR Value 1000
SYMBOL Misc\\battery -144 208 R0
WINDOW 123 0 0 Left 2
WINDOW 39 0 0 Left 2
SYMATTR InstName V1
SYMATTR Value ""
TEXT -144 384 Left 2 !.dc V1 0 100
TEXT -152 424 Left 2 !.step param temp list -10 25 40
