Version 4
SHEET 1 880 680
WIRE 16 208 -64 208
WIRE 160 208 96 208
WIRE -64 240 -64 208
WIRE 160 240 160 208
WIRE -64 352 -64 304
WIRE 48 352 -64 352
WIRE 160 352 160 320
WIRE 160 352 48 352
WIRE 48 368 48 352
FLAG 48 368 0
SYMBOL diode -80 240 R0
WINDOW 3 -253 40 Left 2
SYMATTR InstName D1
SYMATTR Value 1N4148
SYMBOL Misc\\EuropeanResistor 112 192 R90
WINDOW 0 5 56 VBottom 2
WINDOW 3 25 -192 VTop 2
SYMATTR InstName R1
SYMATTR Value 230
SYMBOL voltage 160 224 R0
WINDOW 3 262 -78 Left 2
SYMATTR InstName V1
TEXT -264 240 Left 2 !.op
