Version 4
SHEET 1 880 680
WIRE -176 96 -208 96
WIRE -80 96 -176 96
WIRE 80 96 -16 96
WIRE 96 96 80 96
WIRE -208 176 -208 96
WIRE 96 176 96 96
WIRE -208 320 -208 256
WIRE -48 320 -208 320
WIRE 96 320 96 256
WIRE 96 320 -48 320
WIRE -48 336 -48 320
FLAG -48 336 0
FLAG -176 96 a
FLAG 80 96 b
SYMBOL diode -80 112 R270
WINDOW 0 32 32 VTop 2
WINDOW 3 0 32 VBottom 2
SYMATTR InstName D1
SYMATTR Value RRE04EA4D
SYMBOL Misc\\EuropeanResistor 80 160 R0
SYMATTR InstName R1
SYMATTR Value 1k
SYMBOL Misc\\signal -208 160 R0
WINDOW 123 0 0 Left 2
WINDOW 39 0 0 Left 2
WINDOW 3 -216 127 Left 2
SYMATTR InstName V1
SYMATTR Value SINE(0 150 2k)
TEXT -424 320 Left 2 !.tran 1000u
