Version 4
SHEET 1 880 680
WIRE 256 -96 32 -96
WIRE 304 -96 256 -96
WIRE 416 -96 304 -96
WIRE 32 -48 32 -96
WIRE 256 128 256 -96
WIRE 416 144 416 -96
WIRE 32 176 32 32
WIRE 192 176 32 176
WIRE 256 288 256 224
WIRE 32 304 32 176
WIRE 256 304 256 288
WIRE 32 432 32 384
WIRE 256 432 256 384
WIRE 256 432 32 432
WIRE 416 432 416 224
WIRE 416 432 256 432
WIRE 256 480 256 432
FLAG 256 480 0
FLAG 32 176 B
FLAG 256 288 E
FLAG 304 -96 CC
SYMBOL npn 192 128 R0
SYMATTR InstName Q1
SYMATTR Value 2N2222
SYMBOL Misc\\EuropeanResistor 240 288 R0
SYMATTR InstName RE
SYMATTR Value 1k
SYMBOL Misc\\EuropeanResistor 16 288 R0
SYMATTR InstName R2
SYMATTR Value 22k
SYMBOL Misc\\EuropeanResistor 16 -64 R0
SYMATTR InstName R1
SYMATTR Value 47k
SYMBOL voltage 416 128 R0
WINDOW 123 0 0 Left 0
WINDOW 39 0 0 Left 0
SYMATTR InstName VCC
SYMATTR Value 5V
TEXT 40 488 Left 2 !.op
