Version 4
SHEET 1 880 680
WIRE 192 -64 96 -64
WIRE 288 -64 192 -64
WIRE 288 -48 288 -64
WIRE 96 0 96 -64
WIRE 192 0 192 -64
WIRE 288 48 288 32
WIRE 192 96 192 80
WIRE 192 112 192 96
WIRE 96 160 96 80
WIRE 112 160 96 160
WIRE 128 160 112 160
WIRE 192 224 192 208
WIRE 192 272 192 224
FLAG 288 48 0
FLAG 192 272 0
FLAG 112 160 B
FLAG 192 96 C
FLAG 192 224 E
SYMBOL npn 128 112 R0
SYMATTR InstName Q1
SYMATTR Value BC546B
SYMBOL Misc\\EuropeanResistor 80 -16 R0
WINDOW 0 -25 46 Left 2
WINDOW 3 -57 63 Left 2
SYMATTR InstName R1
SYMATTR Value 10Meg
SYMBOL Misc\\EuropeanResistor 176 -16 R0
WINDOW 0 -18 45 Left 2
WINDOW 3 -22 59 Left 2
SYMATTR InstName RC
SYMATTR Value 10k
SYMBOL voltage 288 -64 R0
WINDOW 0 38 41 Left 2
WINDOW 3 39 63 Left 2
WINDOW 123 0 0 Left 2
WINDOW 39 0 0 Left 2
SYMATTR InstName VCC
SYMATTR Value 9V
TEXT 8 -64 Left 2 !.op
