**************************************
*      Model Generated by MODPEX     *
*Copyright(c) Symmetry Design Systems*
*         All Rights Reserved        *
*    UNPUBLISHED LICENSED SOFTWARE   *
*   Contains Proprietary Information *
*      Which is The Property of      *
*     SYMMETRY OR ITS LICENSORS      *
*    Modeling services provided by   *
* Interface Technologies www.i-t.com *
**************************************
.MODEL DMUR180ERL d
+IS=1.53377e-08 RS=0.115758 N=2.40861 EG=1.83222
+XTI=5e-05 BV=800 IBV=1e-05 CJO=2.07961e-11
+VJ=0.609679 M=0.480745 FC=0.5 TT=1.66475e-07
+KF=0 AF=1
* Model generated on September 28, 2003
* Model format: PSpice
