Version 4
SHEET 1 880 680
WIRE -64 160 -80 160
WIRE 16 160 -64 160
WIRE 128 160 80 160
WIRE 176 160 128 160
WIRE -192 208 -192 192
WIRE -80 208 -80 160
WIRE 176 208 176 160
WIRE -192 320 -192 288
WIRE -80 320 -80 288
WIRE 176 320 176 288
FLAG -192 320 0
FLAG -80 320 0
FLAG 176 320 0
FLAG 128 160 b
FLAG -64 160 a
FLAG -192 192 c
FLAG 48 208 c
SYMBOL voltage -192 192 R0
WINDOW 0 19 9 Left 2
WINDOW 3 18 23 Left 2
WINDOW 123 0 0 Left 2
WINDOW 39 0 0 Left 2
SYMATTR InstName Vlight
SYMATTR Value {vlight}
SYMBOL photodiode 80 176 M270
SYMATTR InstName X1
SYMBOL voltage -80 192 R0
WINDOW 3 24 32 Invisible 2
WINDOW 123 0 0 Left 2
WINDOW 39 0 0 Left 2
WINDOW 0 23 5 Left 2
SYMATTR Value 0
SYMATTR InstName V1
SYMBOL Misc\\EuropeanResistor 160 192 R0
SYMATTR InstName R1
SYMATTR Value 600
TEXT -184 368 Left 2 !.dc V1 6V -3V
TEXT -184 352 Left 2 !.step param vlight list 0.001 0.0020 0.0030
TEXT -184 384 Left 2 !.meas dc Isc find I(V1) when V1=0V
TEXT -184 400 Left 2 !.meas dc Uoc find V(b)-V(a) when I(V1)=0A
TEXT -232 160 Left 2 ;PHOTO-DC-3
