Version 4
SHEET 1 880 680
WIRE -64 160 -80 160
WIRE 16 160 -64 160
WIRE 128 160 80 160
WIRE 176 160 128 160
WIRE 176 208 176 160
WIRE -240 224 -240 208
WIRE -80 224 -80 160
WIRE -240 320 -240 304
WIRE -80 320 -80 304
WIRE 176 320 176 288
FLAG -240 320 0
FLAG -80 320 0
FLAG 176 320 0
FLAG 128 160 b
FLAG -64 160 a
FLAG -240 208 light
FLAG 48 208 light
SYMBOL voltage -240 208 R0
WINDOW 0 39 38 Left 2
WINDOW 3 39 62 Left 2
WINDOW 123 0 0 Left 2
WINDOW 39 0 0 Left 2
SYMATTR InstName Vlight
SYMATTR Value {vlight}
SYMBOL photodiode 80 176 M270
SYMATTR InstName X1
SYMBOL voltage -80 208 R0
WINDOW 3 24 32 Invisible 2
WINDOW 123 0 0 Left 2
WINDOW 39 0 0 Left 2
WINDOW 0 23 5 Left 2
SYMATTR Value 0
SYMATTR InstName V1
SYMBOL Misc\\EuropeanResistor 160 192 R0
SYMATTR InstName R1
SYMATTR Value 500
TEXT -248 392 Left 2 !.dc V1 5V -2V
TEXT -248 368 Left 2 !.step param vlight list 0.0015 0.0025 0.0035
TEXT -248 424 Left 2 !.meas dc Isc find I(V1) when V(b)-V(a)=0V
TEXT -248 456 Left 2 !.meas dc Uoc find V(b)-V(a) when I(V1)=0A
TEXT -240 152 Left 2 ;PHOTO-DC-4
