Version 4
SHEET 1 880 680
WIRE 176 16 -64 16
WIRE -64 48 -64 16
WIRE -112 80 -240 80
WIRE 176 128 176 16
WIRE -240 160 -240 80
WIRE -64 160 -64 112
WIRE 16 160 -64 160
WIRE -64 208 -64 160
WIRE -240 320 -240 240
WIRE -64 320 -64 288
WIRE 176 320 176 208
FLAG -240 320 0
FLAG 176 320 0
FLAG -64 320 0
FLAG 16 160 Uout
FLAG -240 80 light
SYMBOL voltage -240 144 R0
WINDOW 0 39 38 Left 2
WINDOW 3 39 62 Left 2
WINDOW 123 0 0 Left 2
WINDOW 39 39 82 Left 2
SYMATTR InstName Vlight
SYMATTR Value {vlight}
SYMBOL photodiode -80 112 M180
SYMATTR InstName X1
SYMBOL voltage 176 112 R0
WINDOW 3 24 32 Invisible 2
WINDOW 123 0 0 Left 2
WINDOW 39 23 25 Left 2
WINDOW 0 23 5 Left 2
SYMATTR Value 0
SYMATTR InstName V1
SYMBOL Misc\\EuropeanResistor -80 192 R0
SYMATTR InstName R1
SYMATTR Value 500
TEXT -248 392 Left 2 !.dc V1 5V -2V
TEXT -248 368 Left 2 !.step param vlight list 0.0015 0.0025 0.0035
TEXT -248 424 Left 2 !.meas dc Isc find I(V1) when V(Uout)-V1=0V
TEXT -248 456 Left 2 !.meas dc Uoc find V(Uout)-V1 when I(V1)=0A
TEXT -40 56 Left 2 ;Photodiode model
