Version 4
SHEET 1 880 680
WIRE 272 -256 256 -256
WIRE 368 -256 272 -256
WIRE 528 -256 448 -256
WIRE 624 -256 528 -256
WIRE 256 -224 256 -256
WIRE 528 -224 528 -256
WIRE 624 -224 624 -256
WIRE 256 -96 256 -144
WIRE 416 -96 256 -96
WIRE 528 -96 528 -160
WIRE 528 -96 416 -96
WIRE 624 -96 624 -144
WIRE 624 -96 528 -96
WIRE 416 -80 416 -96
FLAG 416 -80 0
FLAG 624 -256 b
FLAG 272 -256 a
SYMBOL Misc\\EuropeanResistor 608 -240 R0
WINDOW 0 37 48 Left 2
WINDOW 3 82 391 Left 2
SYMATTR InstName R2
SYMATTR Value 470
SYMBOL zener 544 -160 R180
WINDOW 0 51 34 Left 2
WINDOW 3 -91 -282 Left 2
SYMATTR InstName D1
SYMATTR Value PTZ6_8B
SYMBOL Misc\\EuropeanResistor 464 -272 R90
WINDOW 0 5 56 VBottom 2
WINDOW 3 397 133 VTop 2
SYMATTR InstName R1
SYMATTR Value 47
SYMBOL voltage 256 -240 R0
WINDOW 123 0 0 Left 2
WINDOW 39 0 0 Left 2
WINDOW 0 41 58 Left 2
SYMATTR InstName V1
SYMATTR Value ""
TEXT 376 144 Left 2 !.dc V1 0V 13V
