Version 4
SHEET 1 880 680
WIRE 16 128 -48 128
WIRE 144 128 96 128
WIRE -48 144 -48 128
WIRE 144 160 144 128
WIRE -48 288 -48 224
WIRE 48 288 -48 288
WIRE 144 288 144 224
WIRE 144 288 48 288
WIRE 48 304 48 288
FLAG -48 128 a
FLAG 144 128 b
FLAG 48 304 0
SYMBOL diode 128 160 R0
SYMATTR InstName D1
SYMATTR Value 1N4148
SYMBOL Misc\\signal -48 128 R0
WINDOW 123 0 0 Left 2
WINDOW 39 0 0 Left 2
WINDOW 3 38 63 Left 2
SYMATTR Value SINE(0 10 50)
SYMATTR InstName V1
SYMBOL Misc\\EuropeanResistor 112 112 R90
WINDOW 0 5 56 VBottom 2
WINDOW 3 27 56 VTop 2
SYMATTR InstName R1
SYMATTR Value 500
TEXT -64 304 Left 2 !.tran 0.05s
