Version 4
SHEET 1 880 680
WIRE 368 -96 208 -96
WIRE 208 -80 208 -96
WIRE 368 -80 368 -96
WIRE 368 16 368 0
WIRE 208 48 208 0
WIRE 256 48 208 48
WIRE 208 80 208 48
WIRE -64 128 -80 128
WIRE 0 128 -64 128
WIRE 144 128 80 128
WIRE -80 144 -80 128
WIRE -80 240 -80 224
WIRE 208 240 208 176
FLAG 208 240 0
FLAG -80 240 0
FLAG 368 16 0
FLAG -64 128 IN
FLAG 256 48 OUT
SYMBOL Misc\\EuropeanResistor 192 -96 R0
SYMATTR InstName Rc
SYMATTR Value 300
SYMBOL Misc\\EuropeanResistor 96 112 R90
WINDOW 0 5 56 VBottom 2
WINDOW 3 27 56 VTop 2
SYMATTR InstName Rb
SYMATTR Value 2k
SYMBOL voltage -80 128 R0
WINDOW 3 -4 148 Left 2
WINDOW 123 0 0 Left 2
WINDOW 39 42 89 Left 2
WINDOW 0 42 61 Left 2
SYMATTR Value PULSE(0 {Vbb/2} 1u 1n 1n 5u 10u)
SYMATTR InstName V1
SYMBOL voltage 368 -96 R0
WINDOW 3 22 18 Left 2
WINDOW 123 0 0 Left 2
WINDOW 39 0 0 Left 2
WINDOW 0 18 -11 Left 2
SYMATTR Value {Vcc}
SYMATTR InstName V2
SYMBOL npn 144 80 R0
SYMATTR InstName Q1
SYMATTR Value 2N3904
TEXT -80 304 Left 2 !.tran 10u\n.param Vbb=3V\n.param Vcc=3V
TEXT -80 360 Left 2 !.measure toff TRIG v(IN) VAL={Vbb/2} FALL=1 TARG V(OUT) VAL={Vcc/2} RISE=1
