* DCDZ8_2B D model
* PKG: VMN2,Vz=8.2V at Iz=5mA,Pd=100mW
* Model Generated by ROHM
* All Rights Reserved
* Commercial Use or Resale Restricted
* Date: 2015/10/19
.MODEL DCDZ8_2B D
+ IS=115.85E-18
+ N=1.0103
+ RS=.14382
+ IKF=.27485
+ CJO=23.863E-12
+ M=.3908
+ VJ=.80536
+ ISR=1.201E-12
+ NR=2.7000
+ BV=8.1900
+ IBV=4.9900E-3
+ TT=105.32E-9
+ NBV=0.5000
+ TBV1=0.00055
+ NBVL=16.000
+ IBVL=6.0000E-9
.MODEL CDZ8_2B D
+ IS=115.85E-18
+ N=1.0103
+ RS=.14382
+ IKF=.27485
+ CJO=23.863E-12
+ M=.3908
+ VJ=.80536
+ ISR=1.201E-12
+ NR=2.7000
+ BV=8.1900
+ IBV=4.9900E-3
+ TT=105.32E-9
+ NBV=0.5000
+ TBV1=0.00055
+ NBVL=16.000
+ IBVL=6.0000E-9
