* DEDZV33B D model
* PKG: EMD2,Vz=33V at Iz=2mA,Pd=150mW
* Model Generated by ROHM
* All Rights Reserved
* Commercial Use or
* Resale Restricted
* Date: 2015/09/7
.MODEL EDZV33B D
+ IS=4.3739E-15
+ N=1.1094
+ RS=.26228
+ IKF=.62832
+ CJO=7.6000E-12
+ M=.325085
+ VJ=.77316
+ ISR=6.0323E-13
+ NR=3.1000
+ BV=33.0
+ IBV=1.0000E-3
+ TT=1.7000E-7
+ NBV=1.8200
+ TBV1=0.8400E-3
+ NBVL=245.00
+ IBVL=1.1000E-12







