Version 4
SHEET 1 880 680
WIRE 416 48 256 48
WIRE 256 80 256 48
WIRE 416 128 416 48
WIRE 256 192 256 160
WIRE 256 208 256 192
WIRE 208 288 80 288
WIRE 80 304 80 288
WIRE 80 400 80 384
WIRE 256 400 256 304
WIRE 256 400 80 400
WIRE 416 400 416 208
WIRE 416 400 256 400
WIRE 256 416 256 400
FLAG 256 192 D
FLAG 256 416 0
SYMBOL voltage 416 112 R0
WINDOW 123 0 0 Left 0
WINDOW 39 0 0 Left 0
SYMATTR InstName Vdd
SYMATTR Value 10V
SYMBOL nmos 208 208 R0
SYMATTR InstName M1
SYMATTR Value 2N7002
SYMBOL ind 240 64 R0
SYMATTR InstName L1
SYMATTR Value 20mH
SYMATTR SpiceLine Rser=68
SYMBOL pulse 80 288 R0
WINDOW 3 -106 142 Left 2
SYMATTR InstName Vin
SYMATTR Value PULSE(0.5V 4.5V 10m 0.1m 0.1m 20m)
TEXT 72 464 Left 2 !.tran 50m
