* DCDZV10B D model
* PKG: VMN2M,Vz=10V at Iz=5mA,Pd=100mW
* Model Generated by ROHM
* All Rights Reserved
* Commercial Use or
* Resale Restricted
* Date: 2015/09/01
.MODEL CDZV10B D
+ IS=2.1786E-16
+ N=1.0288
+ RS=.29371
+ IKF=81.809
+ CJO=1.7400E-11
+ M=.37721
+ VJ=.75462
+ ISR=6.9376E-13
+ NR=2.8000
+ BV=9.9500
+ IBV=5.0000E-3
+ TT=1.2800E-7
+ NBV=0.2000
+ TBV1=6.3000E-4
+ NBVL=18.000
+ IBVL=0.1200E-9
.MODEL DCDZV10B D
+ IS=2.1786E-16
+ N=1.0288
+ RS=.29371
+ IKF=81.809
+ CJO=1.7400E-11
+ M=.37721
+ VJ=.75462
+ ISR=6.9376E-13
+ NR=2.8000
+ BV=9.9500
+ IBV=5.0000E-3
+ TT=1.2800E-7
+ NBV=0.2000
+ TBV1=6.3000E-4
+ NBVL=18.000
+ IBVL=0.1200E-9
