Version 4
SHEET 1 880 680
WIRE 0 112 -96 112
WIRE 192 112 80 112
WIRE -96 160 -96 112
WIRE 192 160 192 112
WIRE -96 288 -96 240
WIRE 48 288 -96 288
WIRE 192 288 192 224
WIRE 192 288 48 288
WIRE 48 304 48 288
FLAG 48 304 0
SYMBOL Misc\\EuropeanResistor 96 96 R90
WINDOW 0 5 56 VBottom 2
WINDOW 3 441 58 VTop 2
SYMATTR InstName R1
SYMATTR Value 1000
SYMBOL zener-macro-model 208 224 R180
WINDOW 0 24 64 Left 2
WINDOW 3 -10 -269 Left 2
SYMATTR InstName D1
SYMBOL voltage -96 144 R0
WINDOW 3 75 449 Left 2
SYMATTR InstName V1
TEXT 40 600 Left 2 !.tran 100u
