Version 4
SHEET 1 880 680
WIRE 32 112 -48 112
WIRE 192 112 112 112
WIRE -48 160 -48 112
WIRE 192 176 192 112
WIRE -48 304 -48 240
WIRE 80 304 -48 304
WIRE 192 304 192 240
WIRE 192 304 80 304
WIRE 80 320 80 304
FLAG -48 112 a
FLAG 192 112 b
FLAG 80 320 0
SYMBOL Misc\\EuropeanResistor 128 96 R90
WINDOW 0 5 56 VBottom 2
WINDOW 3 27 56 VTop 2
SYMATTR InstName R1
SYMATTR Value 1000
SYMBOL zener 208 240 R180
WINDOW 0 -10 62 Left 2
WINDOW 3 -81 4 Left 2
SYMATTR InstName D2
SYMATTR Value BZX84C10L
SYMATTR Description Diode
SYMATTR Type diode
SYMBOL pulse -48 144 R0
WINDOW 3 24 96 Invisible 2
WINDOW 123 0 0 Left 2
WINDOW 39 0 0 Left 2
SYMATTR Value PULSE(0 13 5u 1u 1u 20u 50u)
SYMATTR InstName V1
TEXT -64 320 Left 2 !.tran 100u
