Version 4
SHEET 1 880 680
WIRE 16 112 -48 112
WIRE 160 112 96 112
WIRE 288 112 160 112
WIRE 160 144 160 112
WIRE 288 144 288 112
WIRE -48 176 -48 112
WIRE 160 240 160 208
WIRE 288 240 288 208
WIRE -48 336 -48 256
WIRE 48 336 -48 336
WIRE 160 336 160 304
WIRE 160 336 48 336
WIRE 288 336 288 304
WIRE 288 336 160 336
WIRE 48 352 48 336
FLAG -48 112 a
FLAG 288 112 b
FLAG 48 352 0
SYMBOL zener 144 240 R0
WINDOW 0 24 1 Left 2
WINDOW 3 25 62 Left 2
SYMATTR InstName D1
SYMATTR Value BZX84C10L
SYMATTR Description Diode
SYMATTR Type diode
SYMBOL Misc\\EuropeanResistor 112 96 R90
WINDOW 0 5 56 VBottom 2
WINDOW 3 27 56 VTop 2
SYMATTR InstName R1
SYMATTR Value 1k
SYMBOL zener 304 304 R180
WINDOW 0 -10 62 Left 2
WINDOW 3 -81 4 Left 2
SYMATTR InstName D2
SYMATTR Value BZX84C10L
SYMATTR Description Diode
SYMATTR Type diode
SYMBOL pulse -48 160 R0
WINDOW 3 24 96 Invisible 2
WINDOW 123 0 0 Left 2
WINDOW 39 0 0 Left 2
SYMATTR InstName V1
SYMATTR Value PULSE(-13 13 5u 1u 1u 20u 50u)
SYMBOL diode 176 208 R180
WINDOW 0 -10 61 Left 2
WINDOW 3 -59 2 Left 2
SYMATTR InstName D3
SYMATTR Value RFN6T2D
SYMBOL diode 272 144 R0
SYMATTR InstName D4
SYMATTR Value RFN6T2D
TEXT -64 352 Left 2 !.tran 100u
