Version 4
SHEET 1 880 680
WIRE 96 -288 -32 -288
WIRE 288 -288 176 -288
WIRE 288 -240 288 -288
WIRE -32 -224 -32 -288
WIRE -32 -96 -32 -144
WIRE 144 -96 -32 -96
WIRE 288 -96 288 -176
WIRE 288 -96 144 -96
WIRE 144 -80 144 -96
FLAG 144 -80 0
FLAG 288 -288 b
FLAG -32 -288 a
SYMBOL Misc\\EuropeanResistor 192 -304 R90
WINDOW 0 5 56 VBottom 2
WINDOW 3 27 56 VTop 2
SYMATTR InstName R1
SYMATTR Value 1500
SYMBOL voltage -32 -240 R0
WINDOW 3 24 96 Invisible 2
SYMATTR Value ""
SYMATTR InstName V1
SYMBOL zener 304 -176 R180
WINDOW 0 24 64 Left 2
WINDOW 3 24 0 Left 2
SYMATTR InstName D1
SYMATTR Value DEDZV33B
TEXT -272 -280 Left 2 !.dc V1 0 40
TEXT -272 -256 Left 2 !.step temp list  25  100
TEXT 120 -152 Left 2 !.lib edzv33b.lib
TEXT -288 -64 Left 2 !.meas dc x1 find V(b) when I(D1)=-2mA
TEXT -288 -16 Left 2 !.meas dc x2 find V(b) when I(D1)=-1.5mA
TEXT -288 16 Left 2 !.meas dc x3 find V(b) when I(D1)=-2.5mA
