Version 4
SHEET 1 880 680
WIRE 96 -288 -32 -288
WIRE 288 -288 176 -288
WIRE 288 -272 288 -288
WIRE -32 -224 -32 -288
WIRE 288 -176 288 -208
WIRE -32 -96 -32 -144
WIRE 144 -96 -32 -96
WIRE 288 -96 288 -112
WIRE 288 -96 144 -96
WIRE 144 -80 144 -96
FLAG 144 -80 0
FLAG 288 -288 b
FLAG -32 -288 a
SYMBOL Misc\\EuropeanResistor 192 -304 R90
WINDOW 0 5 56 VBottom 2
WINDOW 3 27 56 VTop 2
SYMATTR InstName R1
SYMATTR Value 1500
SYMBOL voltage -32 -240 R0
WINDOW 3 24 96 Invisible 2
SYMATTR Value ""
SYMATTR InstName V1
SYMBOL zener-macro-model 304 -112 R180
WINDOW 0 -60 66 Left 2
WINDOW 3 -122 13 Left 2
SYMATTR InstName U2
SYMATTR Value CDZ3_6B
SYMBOL zener-macro-model 304 -208 R180
WINDOW 0 -60 66 Left 2
WINDOW 3 -122 13 Left 2
SYMATTR InstName U3
SYMATTR Value CDZ3_6B
TEXT -128 -32 Left 2 !.dc V1 0 20
TEXT -128 -8 Left 2 !.step temp list  -13 37
TEXT -128 40 Left 2 !.lib cdz3_6b.lib
TEXT -128 88 Left 2 !.meas dc Iz_4mA find V(b)*1000 when Ix(U1:+)=-4mA\n.meas dc Iz_5mA find V(b)*1000 when Ix(U1:+)=-5mA\n.meas dc Iz_6mA find V(b)*1000 when Ix(U1:+)=-6mA
