Version 4
SHEET 1 880 680
WIRE 16 112 -128 112
WIRE 224 112 96 112
WIRE -128 160 -128 112
WIRE 224 176 224 112
WIRE -128 304 -128 240
WIRE 48 304 -128 304
WIRE 224 304 224 240
WIRE 224 304 48 304
WIRE 48 320 48 304
FLAG -128 112 a
FLAG 224 112 b
FLAG 48 320 0
SYMBOL Misc\\EuropeanResistor 112 96 R90
WINDOW 0 5 56 VBottom 2
WINDOW 3 27 56 VTop 2
SYMATTR InstName R1
SYMATTR Value 300
SYMBOL zener 240 240 R180
WINDOW 0 -47 60 Left 2
WINDOW 3 -135 31 Left 2
SYMATTR InstName D1
SYMATTR Value EDZV6_2B
SYMATTR Description Diode
SYMATTR Type diode
SYMBOL pulse -128 144 R0
WINDOW 3 24 96 Invisible 2
WINDOW 123 0 0 Left 2
WINDOW 39 0 0 Left 2
SYMATTR Value PULSE(0 8V 5u 1u 1u 20u 50u)
SYMATTR InstName V1
TEXT -128 328 Left 2 !.tran 100u
