Version 4
SHEET 1 880 680
WIRE 112 -304 -48 -304
WIRE 368 -304 192 -304
WIRE -48 -224 -48 -304
WIRE 368 -208 368 -304
WIRE -48 -48 -48 -144
WIRE 144 -48 -48 -48
WIRE 368 -48 368 -144
WIRE 368 -48 144 -48
WIRE 144 -32 144 -48
FLAG 144 -32 0
FLAG 368 -304 z
SYMBOL Misc\\battery -48 -240 R0
WINDOW 123 0 0 Left 2
WINDOW 39 0 0 Left 2
WINDOW 0 -47 24 Left 2
WINDOW 3 -45 72 Left 2
SYMATTR InstName V1
SYMATTR Value ""
SYMBOL Misc\\EuropeanResistor 208 -320 R90
WINDOW 0 5 56 VBottom 2
WINDOW 3 27 56 VTop 2
SYMATTR InstName R1
SYMATTR Value 500
SYMBOL zener 384 -144 R180
WINDOW 0 24 64 Left 2
WINDOW 3 24 0 Left 2
SYMATTR InstName D1
SYMATTR Value BZX84C12L
TEXT -40 -24 Left 2 !.dc V1 0 30
TEXT -40 24 Left 2 !.step param temp list -10 25 40
