Version 4
SHEET 1 880 680
WIRE 96 -288 -32 -288
WIRE 288 -288 176 -288
WIRE 288 -240 288 -288
WIRE -32 -224 -32 -288
WIRE -32 -96 -32 -144
WIRE 144 -96 -32 -96
WIRE 288 -96 288 -176
WIRE 288 -96 144 -96
WIRE 144 -80 144 -96
FLAG 144 -80 0
FLAG 288 -288 b
FLAG -32 -288 a
SYMBOL Misc\\EuropeanResistor 192 -304 R90
WINDOW 0 5 56 VBottom 2
WINDOW 3 27 56 VTop 2
SYMATTR InstName R1
SYMATTR Value 220
SYMBOL zener-macro-model 304 -176 R180
WINDOW 0 -41 70 Left 2
WINDOW 3 26 -5 Left 2
SYMATTR InstName U1
SYMATTR Value BZX84C3V0LT1
SYMBOL voltage -32 -240 R0
SYMATTR InstName V1
SYMATTR Value ""
TEXT -24 -72 Left 2 !.dc V1 0 5
TEXT -24 -56 Left 2 !.step temp list -40  25  100
TEXT 192 -72 Left 2 !.lib BZX84C.LIB
TEXT -24 -40 Left 2 !.meas DC Iz_4mA FIND V(b) WHEN I(R1)=-4mA\n.meas DC Iz_5mA FIND V(b) WHEN I(R1)=-5mA\n.meas DC Iz_6mA FIND V(b) WHEN I(R1)=-6mA
