Version 4
SHEET 1 880 680
WIRE 352 -256 336 -256
WIRE 384 -256 352 -256
WIRE 496 -256 464 -256
WIRE 560 -256 496 -256
WIRE 336 -224 336 -256
WIRE 496 -208 496 -256
WIRE 560 -208 560 -256
WIRE 336 -96 336 -144
WIRE 416 -96 336 -96
WIRE 496 -96 496 -144
WIRE 496 -96 416 -96
WIRE 560 -96 560 -128
WIRE 560 -96 496 -96
WIRE 416 -80 416 -96
FLAG 416 -80 0
FLAG 560 -256 b
FLAG 352 -256 a
SYMBOL Misc\\battery 336 -240 R0
WINDOW 123 0 0 Left 2
WINDOW 39 0 0 Left 2
WINDOW 0 15 20 Left 2
WINDOW 3 10 97 Left 2
SYMATTR InstName V1
SYMATTR Value ""
SYMBOL Misc\\EuropeanResistor 544 -224 R0
SYMATTR InstName R4
SYMATTR Value 1k
SYMBOL zener 512 -144 R180
WINDOW 0 24 64 Left 2
WINDOW 3 24 0 Left 2
SYMATTR InstName D1
SYMATTR Value BZX84C10L
SYMBOL Misc\\EuropeanResistor 480 -272 R90
WINDOW 0 5 56 VBottom 2
WINDOW 3 27 56 VTop 2
SYMATTR InstName R1
SYMATTR Value 100
TEXT 336 -48 Left 2 !.dc V1 8V 18V 
