Version 4
SHEET 1 1292 680
WIRE -688 -64 -720 -64
WIRE -592 -64 -608 -64
WIRE -720 -32 -720 -64
WIRE -592 0 -592 -64
WIRE -832 16 -848 16
WIRE -784 16 -832 16
WIRE -704 16 -720 16
WIRE -848 32 -848 16
WIRE -720 80 -720 64
WIRE -704 80 -704 16
WIRE -704 80 -720 80
WIRE -848 128 -848 112
WIRE -720 128 -720 80
WIRE -592 128 -592 80
FLAG -592 128 0
FLAG -848 128 0
FLAG -720 128 0
FLAG -832 16 a
FLAG -720 -64 b
SYMBOL voltage -592 -16 R0
WINDOW 123 0 0 Left 2
WINDOW 39 37 60 Left 2
WINDOW 0 36 55 Left 2
WINDOW 3 36 71 Left 2
SYMATTR InstName Vdd
SYMATTR Value 5V
SYMBOL voltage -848 16 R0
WINDOW 123 0 0 Left 2
WINDOW 39 40 53 Left 2
WINDOW 3 36 72 Left 2
WINDOW 0 36 56 Left 2
SYMATTR Value 4V
SYMATTR InstName Vgs
SYMBOL nmos -768 -32 R0
SYMATTR InstName M1
SYMATTR SpiceModel ""
SYMATTR Value N_1u
SYMATTR Value2 l=1u w=12u
SYMBOL Misc\\EuropeanResistor -592 -80 R90
WINDOW 0 5 56 VBottom 2
WINDOW 3 27 56 VTop 2
SYMATTR InstName Rd
SYMATTR Value 2k
TEXT -856 160 Left 2 !.lib mosfet.lib
TEXT -856 176 Left 2 !.op
