Version 4
SHEET 1 1292 680
WIRE -576 -208 -720 -208
WIRE -720 -176 -720 -208
WIRE -576 -112 -576 -208
WIRE -720 -64 -720 -96
WIRE -768 16 -848 16
WIRE -848 32 -848 16
WIRE -848 144 -848 112
WIRE -720 144 -720 32
WIRE -720 144 -848 144
WIRE -576 144 -576 -32
WIRE -576 144 -720 144
WIRE -720 160 -720 144
FLAG -720 160 0
SYMBOL voltage -576 -128 R0
WINDOW 123 0 0 Left 2
WINDOW 39 37 60 Left 2
WINDOW 0 36 55 Left 2
WINDOW 3 -31 472 Left 2
SYMATTR InstName UDD
SYMATTR Value 5V
SYMBOL voltage -848 16 R0
WINDOW 123 0 0 Left 2
WINDOW 39 40 53 Left 2
WINDOW 3 199 225 Left 2
WINDOW 0 36 56 Left 2
SYMATTR Value 4V
SYMATTR InstName UGS
SYMBOL Misc\\EuropeanResistor -736 -192 R0
WINDOW 3 -3 441 Left 2
WINDOW 0 36 59 Left 2
SYMATTR Value 2k
SYMATTR InstName RD
SYMBOL nmos -768 -64 R0
WINDOW 3 -4 301 Left 2
SYMATTR InstName M1
TEXT -832 240 Left 2 !.op
