Version 4
SHEET 1 1292 680
WIRE -576 -256 -720 -256
WIRE -576 -240 -576 -256
WIRE -720 -224 -720 -256
WIRE -576 -144 -576 -160
WIRE -720 -80 -720 -144
WIRE -640 -80 -720 -80
WIRE -720 -64 -720 -80
WIRE -832 16 -848 16
WIRE -768 16 -832 16
WIRE -848 32 -848 16
WIRE -848 128 -848 112
WIRE -720 128 -720 32
FLAG -576 -144 0
FLAG -848 128 0
FLAG -720 128 0
FLAG -832 16 IN
FLAG -640 -80 OUT
SYMBOL voltage -576 -256 R0
WINDOW 123 0 0 Left 2
WINDOW 39 37 60 Left 2
WINDOW 0 36 55 Left 2
WINDOW 3 -31 472 Left 2
SYMATTR InstName V2
SYMATTR Value 5V
SYMBOL voltage -848 16 R0
WINDOW 123 0 0 Left 2
WINDOW 39 40 53 Left 2
WINDOW 3 -3 197 Left 2
WINDOW 0 36 56 Left 2
SYMATTR Value 4V
SYMATTR InstName V1
SYMBOL Misc\\EuropeanResistor -736 -240 R0
WINDOW 3 -3 441 Left 2
SYMATTR InstName RD
SYMATTR Value 2k
SYMBOL nmos -768 -64 R0
WINDOW 3 -4 301 Left 2
SYMATTR InstName M1
TEXT -856 176 Left 2 !.op
