Version 4
SHEET 1 1292 680
WIRE -576 -336 -720 -336
WIRE -576 -320 -576 -336
WIRE -720 -304 -720 -336
WIRE -576 -224 -576 -240
WIRE -928 -192 -944 -192
WIRE -832 -192 -928 -192
WIRE -832 -176 -832 -192
WIRE -944 -160 -944 -192
WIRE -720 -160 -720 -224
WIRE -640 -160 -720 -160
WIRE -720 -144 -720 -160
WIRE -832 -64 -832 -96
WIRE -768 -64 -832 -64
WIRE -944 -48 -944 -80
WIRE -832 -32 -832 -64
WIRE -832 80 -832 48
WIRE -720 80 -720 -48
FLAG -576 -224 0
FLAG -944 -48 0
FLAG -720 80 0
FLAG -928 -192 IN
FLAG -640 -160 OUT
FLAG -832 80 0
SYMBOL voltage -576 -336 R0
WINDOW 123 0 0 Left 2
WINDOW 39 37 60 Left 2
WINDOW 0 36 55 Left 2
WINDOW 3 -21 566 Left 2
SYMATTR InstName V2
SYMATTR Value 5V
SYMBOL voltage -944 -176 R0
WINDOW 123 0 0 Left 2
WINDOW 39 40 53 Left 2
WINDOW 3 38 413 Left 2
WINDOW 0 36 56 Left 2
SYMATTR Value 4V
SYMATTR InstName V1
SYMBOL Misc\\EuropeanResistor -736 -320 R0
WINDOW 3 6 585 Left 2
SYMATTR InstName RD
SYMATTR Value 2k
SYMBOL nmos -768 -144 R0
WINDOW 3 2 373 Left 2
SYMATTR InstName M1
SYMBOL Misc\\EuropeanResistor -848 -48 R0
WINDOW 3 -3 441 Left 2
SYMATTR InstName R1
SYMATTR Value 2k
SYMBOL Misc\\EuropeanResistor -848 -192 R0
WINDOW 3 -3 441 Left 2
SYMATTR InstName R2
SYMATTR Value 2k
TEXT -856 176 Left 2 !.op
