Version 4
SHEET 1 880 680
WIRE 336 -80 208 -80
WIRE 208 -64 208 -80
WIRE 336 -32 336 -80
WIRE 208 48 208 16
WIRE 336 64 336 48
WIRE 208 80 208 48
WIRE -32 128 -48 128
WIRE 0 128 -32 128
WIRE 128 128 80 128
WIRE 144 128 128 128
WIRE -48 144 -48 128
WIRE -48 240 -48 224
WIRE 208 240 208 176
FLAG 208 240 0
FLAG -48 240 0
FLAG 336 64 0
FLAG 128 128 b
FLAG 208 48 c
FLAG -32 128 a
SYMBOL Misc\\EuropeanResistor 192 -80 R0
SYMATTR InstName Rc
SYMATTR Value 275
SYMBOL Misc\\EuropeanResistor 96 112 R90
WINDOW 0 5 56 VBottom 2
WINDOW 3 27 56 VTop 2
SYMATTR InstName Rb
SYMATTR Value 10k
SYMBOL voltage -48 128 R0
WINDOW 3 -4 148 Left 2
WINDOW 123 0 0 Left 2
WINDOW 39 0 0 Left 2
WINDOW 0 42 61 Left 2
SYMATTR Value PWL(0 0 10u 0 10.1u 10 15u 10 15.1u -10 20u -10 20.1u 0)
SYMATTR InstName Vbb
SYMBOL voltage 336 -48 R0
WINDOW 3 22 18 Left 2
WINDOW 123 0 0 Left 2
WINDOW 39 0 0 Left 2
WINDOW 0 18 -11 Left 2
SYMATTR Value 3V
SYMATTR InstName Vcc
SYMBOL npn 144 80 R0
SYMATTR InstName Q1
SYMATTR Value 2N3904
TEXT -48 304 Left 2 !.tran 25u
