Version 4
SHEET 1 880 680
WIRE 368 16 208 16
WIRE 208 80 208 16
WIRE 368 96 368 16
WIRE 144 128 32 128
WIRE 32 144 32 128
WIRE 32 256 32 224
WIRE 208 256 208 176
WIRE 368 256 368 176
FLAG 208 256 0
FLAG 32 256 0
FLAG 368 256 0
SYMBOL voltage 368 80 R0
WINDOW 3 35 85 Left 2
WINDOW 123 0 0 Left 2
WINDOW 39 0 0 Left 2
WINDOW 0 35 57 Left 2
SYMATTR Value {Uce}
SYMATTR InstName V1
SYMBOL current 32 224 R180
WINDOW 0 -57 46 Left 2
WINDOW 3 -66 28 Invisible 2
WINDOW 123 0 0 Left 2
WINDOW 39 0 0 Left 2
SYMATTR InstName Ibb
SYMATTR Value 0
SYMBOL pnp 144 80 R0
WINDOW 0 -17 1 Left 2
WINDOW 3 -40 17 Left 2
SYMATTR InstName Q1
SYMATTR Value 2N2907
TEXT 48 296 Left 2 !.dc Ibb 0 -500uA
TEXT 48 312 Left 2 !.step param Uce list -5V -10V -20V
TEXT 48 328 Left 2 !.meas dc Ib find Ib(Q1) when Ic(Q1)=-25mA
