*
**********************************************************
*
* MMBT3906
*
* NXP Semiconductors
*
* Switching PNP transistor
* IC   = 200 mA
* VCEO = 40 V 
* hFE  = 100 - 300 @ 1V/10mA
*
*
*
*
* Package pinning does not match Spice model pinning.
* Package: SOT 23
* 
* Package Pin 1: Base
* Package Pin 2: Emitter
* Package Pin 3: Collector
*
*
* 
* Simulator: Spice 2       
*
**********************************************************
*#
.MODEL MMBT3906 PNP 
+     IS=9.273E-15
+     NF=1.012
+     ISE=1.01E-13
+     NE=1.6
+     BF=153.6  
+     IKF=0.09
+     VAF=30.8
+     NR=0.9988
+     ISC=1.117E-12
+     NC=1.43  
+     BR=6.25
+     IKR=0.09
+     VAR=10.97
+     RB=1
+     IRB=1E-06
+     RBM=1  
+     RE=0.1244
+     RC=1.375
+     XTB=0
+     EG=1.11
+     XTI=3
+     CJE=7.897E-12  
+     VJE=0.69
+     MJE=0.3628
+     TF=5.9E-10
+     XTF=2.5
+     VTF=3.8  
+     ITF=0.07
+     PTF=0
+     CJC=6.755E-12
+     VJC=0.37
+     MJC=0.2096 
+     XCJC=0.864
+     TR=4.7E-8
+     CJS=0
+     VJS=0.75
+     MJS=0.333
+     FC=0.5 
*##
*
